
**** 10/14/19 15:51:06 ******* PSpice Lite (March 2016) ******* ID# 10813 ****

 ** Profile: "SCHEMATIC1-Temporal"  [ D:\Anselmo\Escritorio\Segundo\FE\Practica2\Apartado1\Rectificador1-PSpiceFiles\SCHEMATIC1\Tempo


 ****     CIRCUIT DESCRIPTION


******************************************************************************




** Creating circuit file "Temporal.cir" 
** WARNING: THIS AUTOMATICALLY GENERATED FILE MAY BE OVERWRITTEN BY SUBSEQUENT SIMULATIONS

*Libraries: 
* Profile Libraries :
* Local Libraries :
* From [PSPICE NETLIST] section of C:\SPB_Data\cdssetup\OrCAD_PSpice\17.2.0\PSpice.ini file:
.lib "nomd.lib" 

*Analysis directives: 
.TRAN  0 100ms 0 100us 
.OPTIONS ADVCONV
.PROBE64 V(alias(*)) I(alias(*)) W(alias(*)) D(alias(*)) NOISE(alias(*)) 
.INC "..\SCHEMATIC1.net" 



**** INCLUDING SCHEMATIC1.net ****
* source RECTIFICADOR1
D_D1         N00144 N00148 D1N4002 
V_V1         N00144 0  
+SIN 0 10 V 50 Hz 0 0 0
----------$
ERROR -- Expecting keyword STIMULUS, saw V.

R_R1         N00148 0  100 TC=0,0 
C_C1         N00148 0  1000 uF  TC=0,0 
----------------------------$
ERROR(ORPSIM-16015): Unknown parameter.

**** RESUMING Temporal.cir ****
.END
