
**** 10/14/19 22:20:39 ******* PSpice Lite (March 2016) ******* ID# 10813 ****

 ** Profile: "SCHEMATIC1-Temporal"  [ D:\Anselmo\Escritorio\Segundo\FE\Practica2\Apartado2\Recortador-PSpiceFiles\SCHEMATIC1\Temporal


 ****     CIRCUIT DESCRIPTION


******************************************************************************




** Creating circuit file "Temporal.cir" 
** WARNING: THIS AUTOMATICALLY GENERATED FILE MAY BE OVERWRITTEN BY SUBSEQUENT SIMULATIONS

*Libraries: 
* Profile Libraries :
* Local Libraries :
* From [PSPICE NETLIST] section of C:\SPB_Data\cdssetup\OrCAD_PSpice\17.2.0\PSpice.ini file:
.lib "nomd.lib" 

*Analysis directives: 
.TRAN  0 5ms 0 5us 
.OPTIONS ADVCONV
.PROBE64 V(alias(*)) I(alias(*)) W(alias(*)) D(alias(*)) NOISE(alias(*)) 
.INC "..\SCHEMATIC1.net" 



**** INCLUDING SCHEMATIC1.net ****
* source RECORTADOR
D_D1         N00174 N00195 D1N4002 
D_D2         N00186 N00199 D1N4002 
V_V1         N00199 N00174 6V
R_R1         N00167 N00186  2k TC=0,0 
V_V3         N00167 N00174  
+SIN 0 15 1k 0 0 0
V_V4         N00195 N00186 9V

**** RESUMING Temporal.cir ****
.END

ERROR(ORPSIM-15142): Node N00174 is floating

ERROR(ORPSIM-15142): Node N00195 is floating

ERROR(ORPSIM-15142): Node N00186 is floating

ERROR(ORPSIM-15142): Node N00199 is floating

ERROR(ORPSIM-15142): Node N00167 is floating
