
**** 12/14/20 19:12:11 ******* PSpice Lite (March 2016) ******* ID# 10813 ****

 ** Profile: "SCHEMATIC1-Practica_6"  [ c:\users\juanc\desktop\teleco\segundo\fe\practica6\practica6-pspicefiles\schematic1\practica_


 ****     CIRCUIT DESCRIPTION


******************************************************************************




** Creating circuit file "Practica_6.cir" 
** WARNING: THIS AUTOMATICALLY GENERATED FILE MAY BE OVERWRITTEN BY SUBSEQUENT SIMULATIONS

*Libraries: 
* Profile Libraries :
* Local Libraries :
.LIB "../../../practica6-pspicefiles/practica6.lib" 
* From [PSPICE NETLIST] section of C:\SPB_Data\cdssetup\OrCAD_PSpice\17.2.0\PSpice.ini file:
.lib "nomd.lib" 

*Analysis directives: 
.DC LIN Vds1 0v 10v 0.01v 
.STEP LIN V_Vgs1 -3 0 1 
.OPTIONS ADVCONV
.PROBE64 V(alias(*)) I(alias(*)) W(alias(*)) D(alias(*)) NOISE(alias(*)) 
.INC "..\SCHEMATIC1.net" 



**** INCLUDING SCHEMATIC1.net ****
* source PRACTICA6
V_Vgs         N01276 0 0Vdc
V_Vds         N01492 0 -10V
M_M1         N01492 N01276 0 0 Mbreakp  
+ L=2u  
+ W=160u         
J_J1         N01944 N01770 0 Jbreakn 
V_Vgs1         N01770 0 0Vdc
V_Vdc1         N01944 0 0Vdc

**** RESUMING Practica_6.cir ****
.END


ERROR(ORPSIM-15090): DC device Vds1 is undefined
